**************************************************
* OpenRAM generated memory.
* Words: 1024
* Data bits: 32
* Banks: 1
* Column mux: 8:1
**************************************************
*********************** "dff" ******************************
* Positive edge-triggered FF
.SUBCKT dff D Q clk vdd gnd

* SPICE3 file created from dff.ext - technology: sky130A

X00 vdd clk a_24_24# vdd sky130_fd_pr__pfet_01v8 w=0.55u l=0.15u
X01 a_84_296# D vdd vdd sky130_fd_pr__pfet_01v8 w=0.55u l=0.15u
X02 a_104_24# clk a_84_296# vdd sky130_fd_pr__pfet_01v8 w=0.55u l=0.15u
X03 a_140_296# a_24_24# a_104_24# vdd sky130_fd_pr__pfet_01v8 w=0.55u l=0.15u
X04 vdd a_152_16# a_140_296# vdd sky130_fd_pr__pfet_01v8 w=0.55u l=0.15u
X05 a_152_16# a_104_24# vdd vdd sky130_fd_pr__pfet_01v8 w=0.55u l=0.15u
X06 a_260_296# a_152_16# vdd vdd sky130_fd_pr__pfet_01v8 w=0.55u l=0.15u
X07 a_280_24# a_24_24# a_260_296# vdd sky130_fd_pr__pfet_01v8 w=0.55u l=0.15u
X08 a_320_336# clk a_280_24# vdd sky130_fd_pr__pfet_01v8 w=0.55u l=0.15u
X09 vdd Q a_320_336# vdd sky130_fd_pr__pfet_01v8 w=0.55u l=0.15u

X10 gnd clk a_24_24# gnd sky130_fd_pr__nfet_01v8 w=0.42u l=0.15u
X11 Q a_280_24# vdd vdd sky130_fd_pr__pfet_01v8 w=0.55u l=0.15u

X12 a_84_24# D gnd gnd sky130_fd_pr__nfet_01v8 w=0.42u l=0.15u
X13 a_104_24# a_24_24# a_84_24# gnd sky130_fd_pr__nfet_01v8 w=0.42u l=0.15u
X14 a_140_24# clk a_104_24# gnd sky130_fd_pr__nfet_01v8 w=0.42u l=0.15u
X15 gnd a_152_16# a_140_24# gnd sky130_fd_pr__nfet_01v8 w=0.42u l=0.15u
X16 a_152_16# a_104_24# gnd gnd sky130_fd_pr__nfet_01v8 w=0.42u l=0.15u
X17 a_260_24# a_152_16# gnd gnd sky130_fd_pr__nfet_01v8 w=0.42u l=0.15u
X18 a_280_24# clk a_260_24# gnd sky130_fd_pr__nfet_01v8 w=0.42u l=0.15u
X19 a_320_24# a_24_24# a_280_24# gnd sky130_fd_pr__nfet_01v8 w=0.42u l=0.15u
X20 gnd Q a_320_24# gnd sky130_fd_pr__nfet_01v8 w=0.42u l=0.15u
X21 Q a_280_24# gnd gnd sky130_fd_pr__nfet_01v8 w=0.42u l=0.15u

.ENDS

.SUBCKT row_addr_dff din_0 din_1 din_2 din_3 din_4 din_5 din_6 dout_0 dout_1 dout_2 dout_3 dout_4 dout_5 dout_6 clk vdd gnd
*.PININFO din_0:I din_1:I din_2:I din_3:I din_4:I din_5:I din_6:I dout_0:O dout_1:O dout_2:O dout_3:O dout_4:O dout_5:O dout_6:O clk:I vdd:B gnd:B
* INPUT : din_0 
* INPUT : din_1 
* INPUT : din_2 
* INPUT : din_3 
* INPUT : din_4 
* INPUT : din_5 
* INPUT : din_6 
* OUTPUT: dout_0 
* OUTPUT: dout_1 
* OUTPUT: dout_2 
* OUTPUT: dout_3 
* OUTPUT: dout_4 
* OUTPUT: dout_5 
* OUTPUT: dout_6 
* INPUT : clk 
* POWER : vdd 
* GROUND: gnd 
* rows: 7 cols: 1
Xdff_r0_c0 din_0 dout_0 clk vdd gnd dff
Xdff_r1_c0 din_1 dout_1 clk vdd gnd dff
Xdff_r2_c0 din_2 dout_2 clk vdd gnd dff
Xdff_r3_c0 din_3 dout_3 clk vdd gnd dff
Xdff_r4_c0 din_4 dout_4 clk vdd gnd dff
Xdff_r5_c0 din_5 dout_5 clk vdd gnd dff
Xdff_r6_c0 din_6 dout_6 clk vdd gnd dff
.ENDS row_addr_dff

.SUBCKT col_addr_dff din_0 din_1 din_2 dout_0 dout_1 dout_2 clk vdd gnd
*.PININFO din_0:I din_1:I din_2:I dout_0:O dout_1:O dout_2:O clk:I vdd:B gnd:B
* INPUT : din_0 
* INPUT : din_1 
* INPUT : din_2 
* OUTPUT: dout_0 
* OUTPUT: dout_1 
* OUTPUT: dout_2 
* INPUT : clk 
* POWER : vdd 
* GROUND: gnd 
* rows: 1 cols: 3
Xdff_r0_c0 din_0 dout_0 clk vdd gnd dff
Xdff_r0_c1 din_1 dout_1 clk vdd gnd dff
Xdff_r0_c2 din_2 dout_2 clk vdd gnd dff
.ENDS col_addr_dff

.SUBCKT data_dff din_0 din_1 din_2 din_3 din_4 din_5 din_6 din_7 din_8 din_9 din_10 din_11 din_12 din_13 din_14 din_15 din_16 din_17 din_18 din_19 din_20 din_21 din_22 din_23 din_24 din_25 din_26 din_27 din_28 din_29 din_30 din_31 dout_0 dout_1 dout_2 dout_3 dout_4 dout_5 dout_6 dout_7 dout_8 dout_9 dout_10 dout_11 dout_12 dout_13 dout_14 dout_15 dout_16 dout_17 dout_18 dout_19 dout_20 dout_21 dout_22 dout_23 dout_24 dout_25 dout_26 dout_27 dout_28 dout_29 dout_30 dout_31 clk vdd gnd
*.PININFO din_0:I din_1:I din_2:I din_3:I din_4:I din_5:I din_6:I din_7:I din_8:I din_9:I din_10:I din_11:I din_12:I din_13:I din_14:I din_15:I din_16:I din_17:I din_18:I din_19:I din_20:I din_21:I din_22:I din_23:I din_24:I din_25:I din_26:I din_27:I din_28:I din_29:I din_30:I din_31:I dout_0:O dout_1:O dout_2:O dout_3:O dout_4:O dout_5:O dout_6:O dout_7:O dout_8:O dout_9:O dout_10:O dout_11:O dout_12:O dout_13:O dout_14:O dout_15:O dout_16:O dout_17:O dout_18:O dout_19:O dout_20:O dout_21:O dout_22:O dout_23:O dout_24:O dout_25:O dout_26:O dout_27:O dout_28:O dout_29:O dout_30:O dout_31:O clk:I vdd:B gnd:B
* INPUT : din_0 
* INPUT : din_1 
* INPUT : din_2 
* INPUT : din_3 
* INPUT : din_4 
* INPUT : din_5 
* INPUT : din_6 
* INPUT : din_7 
* INPUT : din_8 
* INPUT : din_9 
* INPUT : din_10 
* INPUT : din_11 
* INPUT : din_12 
* INPUT : din_13 
* INPUT : din_14 
* INPUT : din_15 
* INPUT : din_16 
* INPUT : din_17 
* INPUT : din_18 
* INPUT : din_19 
* INPUT : din_20 
* INPUT : din_21 
* INPUT : din_22 
* INPUT : din_23 
* INPUT : din_24 
* INPUT : din_25 
* INPUT : din_26 
* INPUT : din_27 
* INPUT : din_28 
* INPUT : din_29 
* INPUT : din_30 
* INPUT : din_31 
* OUTPUT: dout_0 
* OUTPUT: dout_1 
* OUTPUT: dout_2 
* OUTPUT: dout_3 
* OUTPUT: dout_4 
* OUTPUT: dout_5 
* OUTPUT: dout_6 
* OUTPUT: dout_7 
* OUTPUT: dout_8 
* OUTPUT: dout_9 
* OUTPUT: dout_10 
* OUTPUT: dout_11 
* OUTPUT: dout_12 
* OUTPUT: dout_13 
* OUTPUT: dout_14 
* OUTPUT: dout_15 
* OUTPUT: dout_16 
* OUTPUT: dout_17 
* OUTPUT: dout_18 
* OUTPUT: dout_19 
* OUTPUT: dout_20 
* OUTPUT: dout_21 
* OUTPUT: dout_22 
* OUTPUT: dout_23 
* OUTPUT: dout_24 
* OUTPUT: dout_25 
* OUTPUT: dout_26 
* OUTPUT: dout_27 
* OUTPUT: dout_28 
* OUTPUT: dout_29 
* OUTPUT: dout_30 
* OUTPUT: dout_31 
* INPUT : clk 
* POWER : vdd 
* GROUND: gnd 
* rows: 1 cols: 32
Xdff_r0_c0 din_0 dout_0 clk vdd gnd dff
Xdff_r0_c1 din_1 dout_1 clk vdd gnd dff
Xdff_r0_c2 din_2 dout_2 clk vdd gnd dff
Xdff_r0_c3 din_3 dout_3 clk vdd gnd dff
Xdff_r0_c4 din_4 dout_4 clk vdd gnd dff
Xdff_r0_c5 din_5 dout_5 clk vdd gnd dff
Xdff_r0_c6 din_6 dout_6 clk vdd gnd dff
Xdff_r0_c7 din_7 dout_7 clk vdd gnd dff
Xdff_r0_c8 din_8 dout_8 clk vdd gnd dff
Xdff_r0_c9 din_9 dout_9 clk vdd gnd dff
Xdff_r0_c10 din_10 dout_10 clk vdd gnd dff
Xdff_r0_c11 din_11 dout_11 clk vdd gnd dff
Xdff_r0_c12 din_12 dout_12 clk vdd gnd dff
Xdff_r0_c13 din_13 dout_13 clk vdd gnd dff
Xdff_r0_c14 din_14 dout_14 clk vdd gnd dff
Xdff_r0_c15 din_15 dout_15 clk vdd gnd dff
Xdff_r0_c16 din_16 dout_16 clk vdd gnd dff
Xdff_r0_c17 din_17 dout_17 clk vdd gnd dff
Xdff_r0_c18 din_18 dout_18 clk vdd gnd dff
Xdff_r0_c19 din_19 dout_19 clk vdd gnd dff
Xdff_r0_c20 din_20 dout_20 clk vdd gnd dff
Xdff_r0_c21 din_21 dout_21 clk vdd gnd dff
Xdff_r0_c22 din_22 dout_22 clk vdd gnd dff
Xdff_r0_c23 din_23 dout_23 clk vdd gnd dff
Xdff_r0_c24 din_24 dout_24 clk vdd gnd dff
Xdff_r0_c25 din_25 dout_25 clk vdd gnd dff
Xdff_r0_c26 din_26 dout_26 clk vdd gnd dff
Xdff_r0_c27 din_27 dout_27 clk vdd gnd dff
Xdff_r0_c28 din_28 dout_28 clk vdd gnd dff
Xdff_r0_c29 din_29 dout_29 clk vdd gnd dff
Xdff_r0_c30 din_30 dout_30 clk vdd gnd dff
Xdff_r0_c31 din_31 dout_31 clk vdd gnd dff
.ENDS data_dff

* spice ptx M{0} {1} sky130_fd_pr__nfet_01v8 m=1 w=0.84u l=0.15u pd=1.98u ps=1.98u as=0.32p ad=0.32p

* spice ptx M{0} {1} sky130_fd_pr__nfet_01v8 m=1 w=0.84u l=0.15u pd=1.98u ps=1.98u as=0.32p ad=0.32p

* spice ptx M{0} {1} sky130_fd_pr__nfet_01v8 m=1 w=0.84u l=0.15u pd=1.98u ps=1.98u as=0.32p ad=0.32p

.SUBCKT pnand2 A B Z vdd gnd
*.PININFO A:I B:I Z:O vdd:B gnd:B
* INPUT : A 
* INPUT : B 
* OUTPUT: Z 
* POWER : vdd 
* GROUND: gnd 
Mpnand2_pmos1 vdd A Z vdd sky130_fd_pr__nfet_01v8 m=1 w=0.84u l=0.15u pd=1.98u ps=1.98u as=0.32p ad=0.32p
Mpnand2_pmos2 Z B vdd vdd sky130_fd_pr__nfet_01v8 m=1 w=0.84u l=0.15u pd=1.98u ps=1.98u as=0.32p ad=0.32p
Mpnand2_nmos1 Z B net1 gnd sky130_fd_pr__nfet_01v8 m=1 w=0.84u l=0.15u pd=1.98u ps=1.98u as=0.32p ad=0.32p
Mpnand2_nmos2 net1 A gnd gnd sky130_fd_pr__nfet_01v8 m=1 w=0.84u l=0.15u pd=1.98u ps=1.98u as=0.32p ad=0.32p
.ENDS pnand2

* spice ptx M{0} {1} sky130_fd_pr__nfet_01v8 m=1 w=0.42u l=0.15u pd=1.14u ps=1.14u as=0.16p ad=0.16p

* spice ptx M{0} {1} sky130_fd_pr__nfet_01v8 m=1 w=0.84u l=0.15u pd=1.98u ps=1.98u as=0.32p ad=0.32p

.SUBCKT pinv A Z vdd gnd
*.PININFO A:I Z:O vdd:B gnd:B
* INPUT : A 
* OUTPUT: Z 
* POWER : vdd 
* GROUND: gnd 
Mpinv_pmos Z A vdd vdd sky130_fd_pr__nfet_01v8 m=1 w=0.84u l=0.15u pd=1.98u ps=1.98u as=0.32p ad=0.32p
Mpinv_nmos Z A gnd gnd sky130_fd_pr__nfet_01v8 m=1 w=0.42u l=0.15u pd=1.14u ps=1.14u as=0.16p ad=0.16p
.ENDS pinv

.SUBCKT and2_dec A B Z vdd gnd
*.PININFO A:I B:I Z:O vdd:B gnd:B
* INPUT : A 
* INPUT : B 
* OUTPUT: Z 
* POWER : vdd 
* GROUND: gnd 
* size: 1
Xpand2_dec_nand A B zb_int vdd gnd pnand2
Xpand2_dec_inv zb_int Z vdd gnd pinv
.ENDS and2_dec

* spice ptx M{0} {1} sky130_fd_pr__nfet_01v8 m=1 w=0.84u l=0.15u pd=1.98u ps=1.98u as=0.32p ad=0.32p

.SUBCKT pnand3 A B C Z vdd gnd
*.PININFO A:I B:I C:I Z:O vdd:B gnd:B
* INPUT : A 
* INPUT : B 
* INPUT : C 
* OUTPUT: Z 
* POWER : vdd 
* GROUND: gnd 
Mpnand3_pmos1 vdd A Z vdd sky130_fd_pr__nfet_01v8 m=1 w=0.84u l=0.15u pd=1.98u ps=1.98u as=0.32p ad=0.32p
Mpnand3_pmos2 Z B vdd vdd sky130_fd_pr__nfet_01v8 m=1 w=0.84u l=0.15u pd=1.98u ps=1.98u as=0.32p ad=0.32p
Mpnand3_pmos3 Z C vdd vdd sky130_fd_pr__nfet_01v8 m=1 w=0.84u l=0.15u pd=1.98u ps=1.98u as=0.32p ad=0.32p
Mpnand3_nmos1 Z C net1 gnd sky130_fd_pr__nfet_01v8 m=1 w=0.84u l=0.15u pd=1.98u ps=1.98u as=0.32p ad=0.32p
Mpnand3_nmos2 net1 B net2 gnd sky130_fd_pr__nfet_01v8 m=1 w=0.84u l=0.15u pd=1.98u ps=1.98u as=0.32p ad=0.32p
Mpnand3_nmos3 net2 A gnd gnd sky130_fd_pr__nfet_01v8 m=1 w=0.84u l=0.15u pd=1.98u ps=1.98u as=0.32p ad=0.32p
.ENDS pnand3

.SUBCKT and3_dec A B C Z vdd gnd
*.PININFO A:I B:I C:I Z:O vdd:B gnd:B
* INPUT : A 
* INPUT : B 
* INPUT : C 
* OUTPUT: Z 
* POWER : vdd 
* GROUND: gnd 
* size: 1
Xpand3_dec_nand A B C zb_int vdd gnd pnand3
Xpand3_dec_inv zb_int Z vdd gnd pinv
.ENDS and3_dec

.SUBCKT hierarchical_predecode2x4 in_0 in_1 out_0 out_1 out_2 out_3 vdd gnd
*.PININFO in_0:I in_1:I out_0:O out_1:O out_2:O out_3:O vdd:B gnd:B
* INPUT : in_0 
* INPUT : in_1 
* OUTPUT: out_0 
* OUTPUT: out_1 
* OUTPUT: out_2 
* OUTPUT: out_3 
* POWER : vdd 
* GROUND: gnd 
Xpre_inv_0 in_0 inbar_0 vdd gnd pinv
Xpre_inv_1 in_1 inbar_1 vdd gnd pinv
XXpre2x4_and_0 inbar_0 inbar_1 out_0 vdd gnd and2_dec
XXpre2x4_and_1 in_0 inbar_1 out_1 vdd gnd and2_dec
XXpre2x4_and_2 inbar_0 in_1 out_2 vdd gnd and2_dec
XXpre2x4_and_3 in_0 in_1 out_3 vdd gnd and2_dec
.ENDS hierarchical_predecode2x4

.SUBCKT hierarchical_predecode3x8 in_0 in_1 in_2 out_0 out_1 out_2 out_3 out_4 out_5 out_6 out_7 vdd gnd
*.PININFO in_0:I in_1:I in_2:I out_0:O out_1:O out_2:O out_3:O out_4:O out_5:O out_6:O out_7:O vdd:B gnd:B
* INPUT : in_0 
* INPUT : in_1 
* INPUT : in_2 
* OUTPUT: out_0 
* OUTPUT: out_1 
* OUTPUT: out_2 
* OUTPUT: out_3 
* OUTPUT: out_4 
* OUTPUT: out_5 
* OUTPUT: out_6 
* OUTPUT: out_7 
* POWER : vdd 
* GROUND: gnd 
Xpre_inv_0 in_0 inbar_0 vdd gnd pinv
Xpre_inv_1 in_1 inbar_1 vdd gnd pinv
Xpre_inv_2 in_2 inbar_2 vdd gnd pinv
XXpre3x8_and_0 inbar_0 inbar_1 inbar_2 out_0 vdd gnd and3_dec
XXpre3x8_and_1 in_0 inbar_1 inbar_2 out_1 vdd gnd and3_dec
XXpre3x8_and_2 inbar_0 in_1 inbar_2 out_2 vdd gnd and3_dec
XXpre3x8_and_3 in_0 in_1 inbar_2 out_3 vdd gnd and3_dec
XXpre3x8_and_4 inbar_0 inbar_1 in_2 out_4 vdd gnd and3_dec
XXpre3x8_and_5 in_0 inbar_1 in_2 out_5 vdd gnd and3_dec
XXpre3x8_and_6 inbar_0 in_1 in_2 out_6 vdd gnd and3_dec
XXpre3x8_and_7 in_0 in_1 in_2 out_7 vdd gnd and3_dec
.ENDS hierarchical_predecode3x8

.SUBCKT pnand4 A B C D Z vdd gnd
*.PININFO A:I B:I C:I D:I Z:O vdd:B gnd:B
* INPUT : A 
* INPUT : B 
* INPUT : C 
* INPUT : D 
* OUTPUT: Z 
* POWER : vdd 
* GROUND: gnd 
Mpnand4_pmos1 vdd A Z vdd sky130_fd_pr__nfet_01v8 m=1 w=0.84u l=0.15u pd=1.98u ps=1.98u as=0.32p ad=0.32p
Mpnand4_pmos2 Z B vdd vdd sky130_fd_pr__nfet_01v8 m=1 w=0.84u l=0.15u pd=1.98u ps=1.98u as=0.32p ad=0.32p
Mpnand4_pmos3 Z C vdd vdd sky130_fd_pr__nfet_01v8 m=1 w=0.84u l=0.15u pd=1.98u ps=1.98u as=0.32p ad=0.32p
Mpnand4_pmos4 Z D vdd vdd sky130_fd_pr__nfet_01v8 m=1 w=0.84u l=0.15u pd=1.98u ps=1.98u as=0.32p ad=0.32p
Mpnand4_nmos1 Z D net1 gnd sky130_fd_pr__nfet_01v8 m=1 w=0.84u l=0.15u pd=1.98u ps=1.98u as=0.32p ad=0.32p
Mpnand4_nmos2 net1 C net2 gnd sky130_fd_pr__nfet_01v8 m=1 w=0.84u l=0.15u pd=1.98u ps=1.98u as=0.32p ad=0.32p
Mpnand4_nmos3 net2 B net3 gnd sky130_fd_pr__nfet_01v8 m=1 w=0.84u l=0.15u pd=1.98u ps=1.98u as=0.32p ad=0.32p
Mpnand4_nmos4 net3 A gnd gnd sky130_fd_pr__nfet_01v8 m=1 w=0.84u l=0.15u pd=1.98u ps=1.98u as=0.32p ad=0.32p
.ENDS pnand4

.SUBCKT and4_dec A B C D Z vdd gnd
*.PININFO A:I B:I C:I D:I Z:O vdd:B gnd:B
* INPUT : A 
* INPUT : B 
* INPUT : C 
* INPUT : D 
* OUTPUT: Z 
* POWER : vdd 
* GROUND: gnd 
* size: 1
Xpand4_dec_nand A B C D zb_int vdd gnd pnand4
Xpand4_dec_inv zb_int Z vdd gnd pinv
.ENDS and4_dec

.SUBCKT hierarchical_predecode4x16 in_0 in_1 in_2 in_3 out_0 out_1 out_2 out_3 out_4 out_5 out_6 out_7 out_8 out_9 out_10 out_11 out_12 out_13 out_14 out_15 vdd gnd
*.PININFO in_0:I in_1:I in_2:I in_3:I out_0:O out_1:O out_2:O out_3:O out_4:O out_5:O out_6:O out_7:O out_8:O out_9:O out_10:O out_11:O out_12:O out_13:O out_14:O out_15:O vdd:B gnd:B
* INPUT : in_0 
* INPUT : in_1 
* INPUT : in_2 
* INPUT : in_3 
* OUTPUT: out_0 
* OUTPUT: out_1 
* OUTPUT: out_2 
* OUTPUT: out_3 
* OUTPUT: out_4 
* OUTPUT: out_5 
* OUTPUT: out_6 
* OUTPUT: out_7 
* OUTPUT: out_8 
* OUTPUT: out_9 
* OUTPUT: out_10 
* OUTPUT: out_11 
* OUTPUT: out_12 
* OUTPUT: out_13 
* OUTPUT: out_14 
* OUTPUT: out_15 
* POWER : vdd 
* GROUND: gnd 
Xpre_inv_0 in_0 inbar_0 vdd gnd pinv
Xpre_inv_1 in_1 inbar_1 vdd gnd pinv
Xpre_inv_2 in_2 inbar_2 vdd gnd pinv
Xpre_inv_3 in_3 inbar_3 vdd gnd pinv
XXpre4x16_and_0 inbar_0 inbar_1 inbar_2 inbar_3 out_0 vdd gnd and4_dec
XXpre4x16_and_1 in_0 inbar_1 inbar_2 inbar_3 out_1 vdd gnd and4_dec
XXpre4x16_and_2 inbar_0 in_1 inbar_2 inbar_3 out_2 vdd gnd and4_dec
XXpre4x16_and_3 in_0 in_1 inbar_2 inbar_3 out_3 vdd gnd and4_dec
XXpre4x16_and_4 inbar_0 inbar_1 in_2 inbar_3 out_4 vdd gnd and4_dec
XXpre4x16_and_5 in_0 inbar_1 in_2 inbar_3 out_5 vdd gnd and4_dec
XXpre4x16_and_6 inbar_0 in_1 in_2 inbar_3 out_6 vdd gnd and4_dec
XXpre4x16_and_7 in_0 in_1 in_2 inbar_3 out_7 vdd gnd and4_dec
XXpre4x16_and_8 inbar_0 inbar_1 inbar_2 in_3 out_8 vdd gnd and4_dec
XXpre4x16_and_9 in_0 inbar_1 inbar_2 in_3 out_9 vdd gnd and4_dec
XXpre4x16_and_10 inbar_0 in_1 inbar_2 in_3 out_10 vdd gnd and4_dec
XXpre4x16_and_11 in_0 in_1 inbar_2 in_3 out_11 vdd gnd and4_dec
XXpre4x16_and_12 inbar_0 inbar_1 in_2 in_3 out_12 vdd gnd and4_dec
XXpre4x16_and_13 in_0 inbar_1 in_2 in_3 out_13 vdd gnd and4_dec
XXpre4x16_and_14 inbar_0 in_1 in_2 in_3 out_14 vdd gnd and4_dec
XXpre4x16_and_15 in_0 in_1 in_2 in_3 out_15 vdd gnd and4_dec
.ENDS hierarchical_predecode4x16

.SUBCKT hierarchical_decoder addr_0 addr_1 addr_2 addr_3 addr_4 addr_5 addr_6 decode_0 decode_1 decode_2 decode_3 decode_4 decode_5 decode_6 decode_7 decode_8 decode_9 decode_10 decode_11 decode_12 decode_13 decode_14 decode_15 decode_16 decode_17 decode_18 decode_19 decode_20 decode_21 decode_22 decode_23 decode_24 decode_25 decode_26 decode_27 decode_28 decode_29 decode_30 decode_31 decode_32 decode_33 decode_34 decode_35 decode_36 decode_37 decode_38 decode_39 decode_40 decode_41 decode_42 decode_43 decode_44 decode_45 decode_46 decode_47 decode_48 decode_49 decode_50 decode_51 decode_52 decode_53 decode_54 decode_55 decode_56 decode_57 decode_58 decode_59 decode_60 decode_61 decode_62 decode_63 decode_64 decode_65 decode_66 decode_67 decode_68 decode_69 decode_70 decode_71 decode_72 decode_73 decode_74 decode_75 decode_76 decode_77 decode_78 decode_79 decode_80 decode_81 decode_82 decode_83 decode_84 decode_85 decode_86 decode_87 decode_88 decode_89 decode_90 decode_91 decode_92 decode_93 decode_94 decode_95 decode_96 decode_97 decode_98 decode_99 decode_100 decode_101 decode_102 decode_103 decode_104 decode_105 decode_106 decode_107 decode_108 decode_109 decode_110 decode_111 decode_112 decode_113 decode_114 decode_115 decode_116 decode_117 decode_118 decode_119 decode_120 decode_121 decode_122 decode_123 decode_124 decode_125 decode_126 decode_127 vdd gnd
*.PININFO addr_0:I addr_1:I addr_2:I addr_3:I addr_4:I addr_5:I addr_6:I decode_0:O decode_1:O decode_2:O decode_3:O decode_4:O decode_5:O decode_6:O decode_7:O decode_8:O decode_9:O decode_10:O decode_11:O decode_12:O decode_13:O decode_14:O decode_15:O decode_16:O decode_17:O decode_18:O decode_19:O decode_20:O decode_21:O decode_22:O decode_23:O decode_24:O decode_25:O decode_26:O decode_27:O decode_28:O decode_29:O decode_30:O decode_31:O decode_32:O decode_33:O decode_34:O decode_35:O decode_36:O decode_37:O decode_38:O decode_39:O decode_40:O decode_41:O decode_42:O decode_43:O decode_44:O decode_45:O decode_46:O decode_47:O decode_48:O decode_49:O decode_50:O decode_51:O decode_52:O decode_53:O decode_54:O decode_55:O decode_56:O decode_57:O decode_58:O decode_59:O decode_60:O decode_61:O decode_62:O decode_63:O decode_64:O decode_65:O decode_66:O decode_67:O decode_68:O decode_69:O decode_70:O decode_71:O decode_72:O decode_73:O decode_74:O decode_75:O decode_76:O decode_77:O decode_78:O decode_79:O decode_80:O decode_81:O decode_82:O decode_83:O decode_84:O decode_85:O decode_86:O decode_87:O decode_88:O decode_89:O decode_90:O decode_91:O decode_92:O decode_93:O decode_94:O decode_95:O decode_96:O decode_97:O decode_98:O decode_99:O decode_100:O decode_101:O decode_102:O decode_103:O decode_104:O decode_105:O decode_106:O decode_107:O decode_108:O decode_109:O decode_110:O decode_111:O decode_112:O decode_113:O decode_114:O decode_115:O decode_116:O decode_117:O decode_118:O decode_119:O decode_120:O decode_121:O decode_122:O decode_123:O decode_124:O decode_125:O decode_126:O decode_127:O vdd:B gnd:B
* INPUT : addr_0 
* INPUT : addr_1 
* INPUT : addr_2 
* INPUT : addr_3 
* INPUT : addr_4 
* INPUT : addr_5 
* INPUT : addr_6 
* OUTPUT: decode_0 
* OUTPUT: decode_1 
* OUTPUT: decode_2 
* OUTPUT: decode_3 
* OUTPUT: decode_4 
* OUTPUT: decode_5 
* OUTPUT: decode_6 
* OUTPUT: decode_7 
* OUTPUT: decode_8 
* OUTPUT: decode_9 
* OUTPUT: decode_10 
* OUTPUT: decode_11 
* OUTPUT: decode_12 
* OUTPUT: decode_13 
* OUTPUT: decode_14 
* OUTPUT: decode_15 
* OUTPUT: decode_16 
* OUTPUT: decode_17 
* OUTPUT: decode_18 
* OUTPUT: decode_19 
* OUTPUT: decode_20 
* OUTPUT: decode_21 
* OUTPUT: decode_22 
* OUTPUT: decode_23 
* OUTPUT: decode_24 
* OUTPUT: decode_25 
* OUTPUT: decode_26 
* OUTPUT: decode_27 
* OUTPUT: decode_28 
* OUTPUT: decode_29 
* OUTPUT: decode_30 
* OUTPUT: decode_31 
* OUTPUT: decode_32 
* OUTPUT: decode_33 
* OUTPUT: decode_34 
* OUTPUT: decode_35 
* OUTPUT: decode_36 
* OUTPUT: decode_37 
* OUTPUT: decode_38 
* OUTPUT: decode_39 
* OUTPUT: decode_40 
* OUTPUT: decode_41 
* OUTPUT: decode_42 
* OUTPUT: decode_43 
* OUTPUT: decode_44 
* OUTPUT: decode_45 
* OUTPUT: decode_46 
* OUTPUT: decode_47 
* OUTPUT: decode_48 
* OUTPUT: decode_49 
* OUTPUT: decode_50 
* OUTPUT: decode_51 
* OUTPUT: decode_52 
* OUTPUT: decode_53 
* OUTPUT: decode_54 
* OUTPUT: decode_55 
* OUTPUT: decode_56 
* OUTPUT: decode_57 
* OUTPUT: decode_58 
* OUTPUT: decode_59 
* OUTPUT: decode_60 
* OUTPUT: decode_61 
* OUTPUT: decode_62 
* OUTPUT: decode_63 
* OUTPUT: decode_64 
* OUTPUT: decode_65 
* OUTPUT: decode_66 
* OUTPUT: decode_67 
* OUTPUT: decode_68 
* OUTPUT: decode_69 
* OUTPUT: decode_70 
* OUTPUT: decode_71 
* OUTPUT: decode_72 
* OUTPUT: decode_73 
* OUTPUT: decode_74 
* OUTPUT: decode_75 
* OUTPUT: decode_76 
* OUTPUT: decode_77 
* OUTPUT: decode_78 
* OUTPUT: decode_79 
* OUTPUT: decode_80 
* OUTPUT: decode_81 
* OUTPUT: decode_82 
* OUTPUT: decode_83 
* OUTPUT: decode_84 
* OUTPUT: decode_85 
* OUTPUT: decode_86 
* OUTPUT: decode_87 
* OUTPUT: decode_88 
* OUTPUT: decode_89 
* OUTPUT: decode_90 
* OUTPUT: decode_91 
* OUTPUT: decode_92 
* OUTPUT: decode_93 
* OUTPUT: decode_94 
* OUTPUT: decode_95 
* OUTPUT: decode_96 
* OUTPUT: decode_97 
* OUTPUT: decode_98 
* OUTPUT: decode_99 
* OUTPUT: decode_100 
* OUTPUT: decode_101 
* OUTPUT: decode_102 
* OUTPUT: decode_103 
* OUTPUT: decode_104 
* OUTPUT: decode_105 
* OUTPUT: decode_106 
* OUTPUT: decode_107 
* OUTPUT: decode_108 
* OUTPUT: decode_109 
* OUTPUT: decode_110 
* OUTPUT: decode_111 
* OUTPUT: decode_112 
* OUTPUT: decode_113 
* OUTPUT: decode_114 
* OUTPUT: decode_115 
* OUTPUT: decode_116 
* OUTPUT: decode_117 
* OUTPUT: decode_118 
* OUTPUT: decode_119 
* OUTPUT: decode_120 
* OUTPUT: decode_121 
* OUTPUT: decode_122 
* OUTPUT: decode_123 
* OUTPUT: decode_124 
* OUTPUT: decode_125 
* OUTPUT: decode_126 
* OUTPUT: decode_127 
* POWER : vdd 
* GROUND: gnd 
Xpre_0 addr_0 addr_1 out_0 out_1 out_2 out_3 vdd gnd hierarchical_predecode2x4
Xpre_1 addr_2 addr_3 out_4 out_5 out_6 out_7 vdd gnd hierarchical_predecode2x4
Xpre3x8_0 addr_4 addr_5 addr_6 out_8 out_9 out_10 out_11 out_12 out_13 out_14 out_15 vdd gnd hierarchical_predecode3x8
XDEC_AND_0 out_0 out_4 out_8 decode_0 vdd gnd and3_dec
XDEC_AND_16 out_0 out_4 out_9 decode_16 vdd gnd and3_dec
XDEC_AND_32 out_0 out_4 out_10 decode_32 vdd gnd and3_dec
XDEC_AND_48 out_0 out_4 out_11 decode_48 vdd gnd and3_dec
XDEC_AND_64 out_0 out_4 out_12 decode_64 vdd gnd and3_dec
XDEC_AND_80 out_0 out_4 out_13 decode_80 vdd gnd and3_dec
XDEC_AND_96 out_0 out_4 out_14 decode_96 vdd gnd and3_dec
XDEC_AND_112 out_0 out_4 out_15 decode_112 vdd gnd and3_dec
XDEC_AND_4 out_0 out_5 out_8 decode_4 vdd gnd and3_dec
XDEC_AND_20 out_0 out_5 out_9 decode_20 vdd gnd and3_dec
XDEC_AND_36 out_0 out_5 out_10 decode_36 vdd gnd and3_dec
XDEC_AND_52 out_0 out_5 out_11 decode_52 vdd gnd and3_dec
XDEC_AND_68 out_0 out_5 out_12 decode_68 vdd gnd and3_dec
XDEC_AND_84 out_0 out_5 out_13 decode_84 vdd gnd and3_dec
XDEC_AND_100 out_0 out_5 out_14 decode_100 vdd gnd and3_dec
XDEC_AND_116 out_0 out_5 out_15 decode_116 vdd gnd and3_dec
XDEC_AND_8 out_0 out_6 out_8 decode_8 vdd gnd and3_dec
XDEC_AND_24 out_0 out_6 out_9 decode_24 vdd gnd and3_dec
XDEC_AND_40 out_0 out_6 out_10 decode_40 vdd gnd and3_dec
XDEC_AND_56 out_0 out_6 out_11 decode_56 vdd gnd and3_dec
XDEC_AND_72 out_0 out_6 out_12 decode_72 vdd gnd and3_dec
XDEC_AND_88 out_0 out_6 out_13 decode_88 vdd gnd and3_dec
XDEC_AND_104 out_0 out_6 out_14 decode_104 vdd gnd and3_dec
XDEC_AND_120 out_0 out_6 out_15 decode_120 vdd gnd and3_dec
XDEC_AND_12 out_0 out_7 out_8 decode_12 vdd gnd and3_dec
XDEC_AND_28 out_0 out_7 out_9 decode_28 vdd gnd and3_dec
XDEC_AND_44 out_0 out_7 out_10 decode_44 vdd gnd and3_dec
XDEC_AND_60 out_0 out_7 out_11 decode_60 vdd gnd and3_dec
XDEC_AND_76 out_0 out_7 out_12 decode_76 vdd gnd and3_dec
XDEC_AND_92 out_0 out_7 out_13 decode_92 vdd gnd and3_dec
XDEC_AND_108 out_0 out_7 out_14 decode_108 vdd gnd and3_dec
XDEC_AND_124 out_0 out_7 out_15 decode_124 vdd gnd and3_dec
XDEC_AND_1 out_1 out_4 out_8 decode_1 vdd gnd and3_dec
XDEC_AND_17 out_1 out_4 out_9 decode_17 vdd gnd and3_dec
XDEC_AND_33 out_1 out_4 out_10 decode_33 vdd gnd and3_dec
XDEC_AND_49 out_1 out_4 out_11 decode_49 vdd gnd and3_dec
XDEC_AND_65 out_1 out_4 out_12 decode_65 vdd gnd and3_dec
XDEC_AND_81 out_1 out_4 out_13 decode_81 vdd gnd and3_dec
XDEC_AND_97 out_1 out_4 out_14 decode_97 vdd gnd and3_dec
XDEC_AND_113 out_1 out_4 out_15 decode_113 vdd gnd and3_dec
XDEC_AND_5 out_1 out_5 out_8 decode_5 vdd gnd and3_dec
XDEC_AND_21 out_1 out_5 out_9 decode_21 vdd gnd and3_dec
XDEC_AND_37 out_1 out_5 out_10 decode_37 vdd gnd and3_dec
XDEC_AND_53 out_1 out_5 out_11 decode_53 vdd gnd and3_dec
XDEC_AND_69 out_1 out_5 out_12 decode_69 vdd gnd and3_dec
XDEC_AND_85 out_1 out_5 out_13 decode_85 vdd gnd and3_dec
XDEC_AND_101 out_1 out_5 out_14 decode_101 vdd gnd and3_dec
XDEC_AND_117 out_1 out_5 out_15 decode_117 vdd gnd and3_dec
XDEC_AND_9 out_1 out_6 out_8 decode_9 vdd gnd and3_dec
XDEC_AND_25 out_1 out_6 out_9 decode_25 vdd gnd and3_dec
XDEC_AND_41 out_1 out_6 out_10 decode_41 vdd gnd and3_dec
XDEC_AND_57 out_1 out_6 out_11 decode_57 vdd gnd and3_dec
XDEC_AND_73 out_1 out_6 out_12 decode_73 vdd gnd and3_dec
XDEC_AND_89 out_1 out_6 out_13 decode_89 vdd gnd and3_dec
XDEC_AND_105 out_1 out_6 out_14 decode_105 vdd gnd and3_dec
XDEC_AND_121 out_1 out_6 out_15 decode_121 vdd gnd and3_dec
XDEC_AND_13 out_1 out_7 out_8 decode_13 vdd gnd and3_dec
XDEC_AND_29 out_1 out_7 out_9 decode_29 vdd gnd and3_dec
XDEC_AND_45 out_1 out_7 out_10 decode_45 vdd gnd and3_dec
XDEC_AND_61 out_1 out_7 out_11 decode_61 vdd gnd and3_dec
XDEC_AND_77 out_1 out_7 out_12 decode_77 vdd gnd and3_dec
XDEC_AND_93 out_1 out_7 out_13 decode_93 vdd gnd and3_dec
XDEC_AND_109 out_1 out_7 out_14 decode_109 vdd gnd and3_dec
XDEC_AND_125 out_1 out_7 out_15 decode_125 vdd gnd and3_dec
XDEC_AND_2 out_2 out_4 out_8 decode_2 vdd gnd and3_dec
XDEC_AND_18 out_2 out_4 out_9 decode_18 vdd gnd and3_dec
XDEC_AND_34 out_2 out_4 out_10 decode_34 vdd gnd and3_dec
XDEC_AND_50 out_2 out_4 out_11 decode_50 vdd gnd and3_dec
XDEC_AND_66 out_2 out_4 out_12 decode_66 vdd gnd and3_dec
XDEC_AND_82 out_2 out_4 out_13 decode_82 vdd gnd and3_dec
XDEC_AND_98 out_2 out_4 out_14 decode_98 vdd gnd and3_dec
XDEC_AND_114 out_2 out_4 out_15 decode_114 vdd gnd and3_dec
XDEC_AND_6 out_2 out_5 out_8 decode_6 vdd gnd and3_dec
XDEC_AND_22 out_2 out_5 out_9 decode_22 vdd gnd and3_dec
XDEC_AND_38 out_2 out_5 out_10 decode_38 vdd gnd and3_dec
XDEC_AND_54 out_2 out_5 out_11 decode_54 vdd gnd and3_dec
XDEC_AND_70 out_2 out_5 out_12 decode_70 vdd gnd and3_dec
XDEC_AND_86 out_2 out_5 out_13 decode_86 vdd gnd and3_dec
XDEC_AND_102 out_2 out_5 out_14 decode_102 vdd gnd and3_dec
XDEC_AND_118 out_2 out_5 out_15 decode_118 vdd gnd and3_dec
XDEC_AND_10 out_2 out_6 out_8 decode_10 vdd gnd and3_dec
XDEC_AND_26 out_2 out_6 out_9 decode_26 vdd gnd and3_dec
XDEC_AND_42 out_2 out_6 out_10 decode_42 vdd gnd and3_dec
XDEC_AND_58 out_2 out_6 out_11 decode_58 vdd gnd and3_dec
XDEC_AND_74 out_2 out_6 out_12 decode_74 vdd gnd and3_dec
XDEC_AND_90 out_2 out_6 out_13 decode_90 vdd gnd and3_dec
XDEC_AND_106 out_2 out_6 out_14 decode_106 vdd gnd and3_dec
XDEC_AND_122 out_2 out_6 out_15 decode_122 vdd gnd and3_dec
XDEC_AND_14 out_2 out_7 out_8 decode_14 vdd gnd and3_dec
XDEC_AND_30 out_2 out_7 out_9 decode_30 vdd gnd and3_dec
XDEC_AND_46 out_2 out_7 out_10 decode_46 vdd gnd and3_dec
XDEC_AND_62 out_2 out_7 out_11 decode_62 vdd gnd and3_dec
XDEC_AND_78 out_2 out_7 out_12 decode_78 vdd gnd and3_dec
XDEC_AND_94 out_2 out_7 out_13 decode_94 vdd gnd and3_dec
XDEC_AND_110 out_2 out_7 out_14 decode_110 vdd gnd and3_dec
XDEC_AND_126 out_2 out_7 out_15 decode_126 vdd gnd and3_dec
XDEC_AND_3 out_3 out_4 out_8 decode_3 vdd gnd and3_dec
XDEC_AND_19 out_3 out_4 out_9 decode_19 vdd gnd and3_dec
XDEC_AND_35 out_3 out_4 out_10 decode_35 vdd gnd and3_dec
XDEC_AND_51 out_3 out_4 out_11 decode_51 vdd gnd and3_dec
XDEC_AND_67 out_3 out_4 out_12 decode_67 vdd gnd and3_dec
XDEC_AND_83 out_3 out_4 out_13 decode_83 vdd gnd and3_dec
XDEC_AND_99 out_3 out_4 out_14 decode_99 vdd gnd and3_dec
XDEC_AND_115 out_3 out_4 out_15 decode_115 vdd gnd and3_dec
XDEC_AND_7 out_3 out_5 out_8 decode_7 vdd gnd and3_dec
XDEC_AND_23 out_3 out_5 out_9 decode_23 vdd gnd and3_dec
XDEC_AND_39 out_3 out_5 out_10 decode_39 vdd gnd and3_dec
XDEC_AND_55 out_3 out_5 out_11 decode_55 vdd gnd and3_dec
XDEC_AND_71 out_3 out_5 out_12 decode_71 vdd gnd and3_dec
XDEC_AND_87 out_3 out_5 out_13 decode_87 vdd gnd and3_dec
XDEC_AND_103 out_3 out_5 out_14 decode_103 vdd gnd and3_dec
XDEC_AND_119 out_3 out_5 out_15 decode_119 vdd gnd and3_dec
XDEC_AND_11 out_3 out_6 out_8 decode_11 vdd gnd and3_dec
XDEC_AND_27 out_3 out_6 out_9 decode_27 vdd gnd and3_dec
XDEC_AND_43 out_3 out_6 out_10 decode_43 vdd gnd and3_dec
XDEC_AND_59 out_3 out_6 out_11 decode_59 vdd gnd and3_dec
XDEC_AND_75 out_3 out_6 out_12 decode_75 vdd gnd and3_dec
XDEC_AND_91 out_3 out_6 out_13 decode_91 vdd gnd and3_dec
XDEC_AND_107 out_3 out_6 out_14 decode_107 vdd gnd and3_dec
XDEC_AND_123 out_3 out_6 out_15 decode_123 vdd gnd and3_dec
XDEC_AND_15 out_3 out_7 out_8 decode_15 vdd gnd and3_dec
XDEC_AND_31 out_3 out_7 out_9 decode_31 vdd gnd and3_dec
XDEC_AND_47 out_3 out_7 out_10 decode_47 vdd gnd and3_dec
XDEC_AND_63 out_3 out_7 out_11 decode_63 vdd gnd and3_dec
XDEC_AND_79 out_3 out_7 out_12 decode_79 vdd gnd and3_dec
XDEC_AND_95 out_3 out_7 out_13 decode_95 vdd gnd and3_dec
XDEC_AND_111 out_3 out_7 out_14 decode_111 vdd gnd and3_dec
XDEC_AND_127 out_3 out_7 out_15 decode_127 vdd gnd and3_dec
.ENDS hierarchical_decoder

* spice ptx M{0} {1} sky130_fd_pr__nfet_01v8 m=27 w=1.0u l=0.15u pd=2.30u ps=2.30u as=0.38p ad=0.38p

* spice ptx M{0} {1} sky130_fd_pr__nfet_01v8 m=27 w=1.99u l=0.15u pd=4.28u ps=4.28u as=0.75p ad=0.75p

.SUBCKT pinv_0 A Z vdd gnd
*.PININFO A:I Z:O vdd:B gnd:B
* INPUT : A 
* OUTPUT: Z 
* POWER : vdd 
* GROUND: gnd 
Mpinv_pmos Z A vdd vdd sky130_fd_pr__nfet_01v8 m=27 w=1.99u l=0.15u pd=4.28u ps=4.28u as=0.75p ad=0.75p
Mpinv_nmos Z A gnd gnd sky130_fd_pr__nfet_01v8 m=27 w=1.0u l=0.15u pd=2.30u ps=2.30u as=0.38p ad=0.38p
.ENDS pinv_0

.SUBCKT wordline_driver A B Z vdd gnd
*.PININFO A:I B:I Z:O vdd:B gnd:B
* INPUT : A 
* INPUT : B 
* OUTPUT: Z 
* POWER : vdd 
* GROUND: gnd 
Xwld_nand A B zb_int vdd gnd pnand2
Xwl_driver zb_int Z vdd gnd pinv_0
.ENDS wordline_driver
