**************************************************
* OpenRAM generated memory.
* Words: 16
* Data bits: 2
* Banks: 1
* Column mux: 1:1
**************************************************
*********************** "dff" ******************************
* Positive edge-triggered FF
.SUBCKT dff D Q clk vdd gnd

* SPICE3 file created from dff.ext - technology: sky130A

X00 vdd clk a_24_24# vdd sky130_fd_pr__pfet_01v8 w=0.55u l=0.15u
X01 a_84_296# D vdd vdd sky130_fd_pr__pfet_01v8 w=0.55u l=0.15u
X02 a_104_24# clk a_84_296# vdd sky130_fd_pr__pfet_01v8 w=0.55u l=0.15u
X03 a_140_296# a_24_24# a_104_24# vdd sky130_fd_pr__pfet_01v8 w=0.55u l=0.15u
X04 vdd a_152_16# a_140_296# vdd sky130_fd_pr__pfet_01v8 w=0.55u l=0.15u
X05 a_152_16# a_104_24# vdd vdd sky130_fd_pr__pfet_01v8 w=0.55u l=0.15u
X06 a_260_296# a_152_16# vdd vdd sky130_fd_pr__pfet_01v8 w=0.55u l=0.15u
X07 a_280_24# a_24_24# a_260_296# vdd sky130_fd_pr__pfet_01v8 w=0.55u l=0.15u
X08 a_320_336# clk a_280_24# vdd sky130_fd_pr__pfet_01v8 w=0.55u l=0.15u
X09 vdd Q a_320_336# vdd sky130_fd_pr__pfet_01v8 w=0.55u l=0.15u

X10 gnd clk a_24_24# gnd sky130_fd_pr__nfet_01v8 w=0.42u l=0.15u
X11 Q a_280_24# vdd vdd sky130_fd_pr__pfet_01v8 w=0.55u l=0.15u

X12 a_84_24# D gnd gnd sky130_fd_pr__nfet_01v8 w=0.42u l=0.15u
X13 a_104_24# a_24_24# a_84_24# gnd sky130_fd_pr__nfet_01v8 w=0.42u l=0.15u
X14 a_140_24# clk a_104_24# gnd sky130_fd_pr__nfet_01v8 w=0.42u l=0.15u
X15 gnd a_152_16# a_140_24# gnd sky130_fd_pr__nfet_01v8 w=0.42u l=0.15u
X16 a_152_16# a_104_24# gnd gnd sky130_fd_pr__nfet_01v8 w=0.42u l=0.15u
X17 a_260_24# a_152_16# gnd gnd sky130_fd_pr__nfet_01v8 w=0.42u l=0.15u
X18 a_280_24# clk a_260_24# gnd sky130_fd_pr__nfet_01v8 w=0.42u l=0.15u
X19 a_320_24# a_24_24# a_280_24# gnd sky130_fd_pr__nfet_01v8 w=0.42u l=0.15u
X20 gnd Q a_320_24# gnd sky130_fd_pr__nfet_01v8 w=0.42u l=0.15u
X21 Q a_280_24# gnd gnd sky130_fd_pr__nfet_01v8 w=0.42u l=0.15u

.ENDS

.SUBCKT row_addr_dff din_0 din_1 din_2 din_3 dout_0 dout_1 dout_2 dout_3 clk vdd gnd
*.PININFO din_0:I din_1:I din_2:I din_3:I dout_0:O dout_1:O dout_2:O dout_3:O clk:I vdd:B gnd:B
* INPUT : din_0 
* INPUT : din_1 
* INPUT : din_2 
* INPUT : din_3 
* OUTPUT: dout_0 
* OUTPUT: dout_1 
* OUTPUT: dout_2 
* OUTPUT: dout_3 
* INPUT : clk 
* POWER : vdd 
* GROUND: gnd 
* rows: 4 cols: 1
Xdff_r0_c0 din_0 dout_0 clk vdd gnd dff
Xdff_r1_c0 din_1 dout_1 clk vdd gnd dff
Xdff_r2_c0 din_2 dout_2 clk vdd gnd dff
Xdff_r3_c0 din_3 dout_3 clk vdd gnd dff
.ENDS row_addr_dff

.SUBCKT data_dff din_0 din_1 dout_0 dout_1 clk vdd gnd
*.PININFO din_0:I din_1:I dout_0:O dout_1:O clk:I vdd:B gnd:B
* INPUT : din_0 
* INPUT : din_1 
* OUTPUT: dout_0 
* OUTPUT: dout_1 
* INPUT : clk 
* POWER : vdd 
* GROUND: gnd 
* rows: 1 cols: 2
Xdff_r0_c0 din_0 dout_0 clk vdd gnd dff
Xdff_r0_c1 din_1 dout_1 clk vdd gnd dff
.ENDS data_dff

* spice ptx M{0} {1} sky130_fd_pr__nfet_01v8 m=1 w=0.84u l=0.15u pd=1.98u ps=1.98u as=0.32p ad=0.32p

* spice ptx M{0} {1} sky130_fd_pr__nfet_01v8 m=1 w=0.84u l=0.15u pd=1.98u ps=1.98u as=0.32p ad=0.32p

* spice ptx M{0} {1} sky130_fd_pr__nfet_01v8 m=1 w=0.84u l=0.15u pd=1.98u ps=1.98u as=0.32p ad=0.32p

.SUBCKT pnand2 A B Z vdd gnd
*.PININFO A:I B:I Z:O vdd:B gnd:B
* INPUT : A 
* INPUT : B 
* OUTPUT: Z 
* POWER : vdd 
* GROUND: gnd 
Mpnand2_pmos1 vdd A Z vdd sky130_fd_pr__nfet_01v8 m=1 w=0.84u l=0.15u pd=1.98u ps=1.98u as=0.32p ad=0.32p
Mpnand2_pmos2 Z B vdd vdd sky130_fd_pr__nfet_01v8 m=1 w=0.84u l=0.15u pd=1.98u ps=1.98u as=0.32p ad=0.32p
Mpnand2_nmos1 Z B net1 gnd sky130_fd_pr__nfet_01v8 m=1 w=0.84u l=0.15u pd=1.98u ps=1.98u as=0.32p ad=0.32p
Mpnand2_nmos2 net1 A gnd gnd sky130_fd_pr__nfet_01v8 m=1 w=0.84u l=0.15u pd=1.98u ps=1.98u as=0.32p ad=0.32p
.ENDS pnand2

* spice ptx M{0} {1} sky130_fd_pr__nfet_01v8 m=1 w=0.42u l=0.15u pd=1.14u ps=1.14u as=0.16p ad=0.16p

* spice ptx M{0} {1} sky130_fd_pr__nfet_01v8 m=1 w=0.84u l=0.15u pd=1.98u ps=1.98u as=0.32p ad=0.32p

.SUBCKT pinv A Z vdd gnd
*.PININFO A:I Z:O vdd:B gnd:B
* INPUT : A 
* OUTPUT: Z 
* POWER : vdd 
* GROUND: gnd 
Mpinv_pmos Z A vdd vdd sky130_fd_pr__nfet_01v8 m=1 w=0.84u l=0.15u pd=1.98u ps=1.98u as=0.32p ad=0.32p
Mpinv_nmos Z A gnd gnd sky130_fd_pr__nfet_01v8 m=1 w=0.42u l=0.15u pd=1.14u ps=1.14u as=0.16p ad=0.16p
.ENDS pinv

.SUBCKT and2_dec A B Z vdd gnd
*.PININFO A:I B:I Z:O vdd:B gnd:B
* INPUT : A 
* INPUT : B 
* OUTPUT: Z 
* POWER : vdd 
* GROUND: gnd 
* size: 1
Xpand2_dec_nand A B zb_int vdd gnd pnand2
Xpand2_dec_inv zb_int Z vdd gnd pinv
.ENDS and2_dec

* spice ptx M{0} {1} sky130_fd_pr__nfet_01v8 m=1 w=0.84u l=0.15u pd=1.98u ps=1.98u as=0.32p ad=0.32p

.SUBCKT pnand3 A B C Z vdd gnd
*.PININFO A:I B:I C:I Z:O vdd:B gnd:B
* INPUT : A 
* INPUT : B 
* INPUT : C 
* OUTPUT: Z 
* POWER : vdd 
* GROUND: gnd 
Mpnand3_pmos1 vdd A Z vdd sky130_fd_pr__nfet_01v8 m=1 w=0.84u l=0.15u pd=1.98u ps=1.98u as=0.32p ad=0.32p
Mpnand3_pmos2 Z B vdd vdd sky130_fd_pr__nfet_01v8 m=1 w=0.84u l=0.15u pd=1.98u ps=1.98u as=0.32p ad=0.32p
Mpnand3_pmos3 Z C vdd vdd sky130_fd_pr__nfet_01v8 m=1 w=0.84u l=0.15u pd=1.98u ps=1.98u as=0.32p ad=0.32p
Mpnand3_nmos1 Z C net1 gnd sky130_fd_pr__nfet_01v8 m=1 w=0.84u l=0.15u pd=1.98u ps=1.98u as=0.32p ad=0.32p
Mpnand3_nmos2 net1 B net2 gnd sky130_fd_pr__nfet_01v8 m=1 w=0.84u l=0.15u pd=1.98u ps=1.98u as=0.32p ad=0.32p
Mpnand3_nmos3 net2 A gnd gnd sky130_fd_pr__nfet_01v8 m=1 w=0.84u l=0.15u pd=1.98u ps=1.98u as=0.32p ad=0.32p
.ENDS pnand3

.SUBCKT and3_dec A B C Z vdd gnd
*.PININFO A:I B:I C:I Z:O vdd:B gnd:B
* INPUT : A 
* INPUT : B 
* INPUT : C 
* OUTPUT: Z 
* POWER : vdd 
* GROUND: gnd 
* size: 1
Xpand3_dec_nand A B C zb_int vdd gnd pnand3
Xpand3_dec_inv zb_int Z vdd gnd pinv
.ENDS and3_dec

.SUBCKT hierarchical_predecode2x4 in_0 in_1 out_0 out_1 out_2 out_3 vdd gnd
*.PININFO in_0:I in_1:I out_0:O out_1:O out_2:O out_3:O vdd:B gnd:B
* INPUT : in_0 
* INPUT : in_1 
* OUTPUT: out_0 
* OUTPUT: out_1 
* OUTPUT: out_2 
* OUTPUT: out_3 
* POWER : vdd 
* GROUND: gnd 
Xpre_inv_0 in_0 inbar_0 vdd gnd pinv
Xpre_inv_1 in_1 inbar_1 vdd gnd pinv
XXpre2x4_and_0 inbar_0 inbar_1 out_0 vdd gnd and2_dec
XXpre2x4_and_1 in_0 inbar_1 out_1 vdd gnd and2_dec
XXpre2x4_and_2 inbar_0 in_1 out_2 vdd gnd and2_dec
XXpre2x4_and_3 in_0 in_1 out_3 vdd gnd and2_dec
.ENDS hierarchical_predecode2x4

.SUBCKT hierarchical_predecode3x8 in_0 in_1 in_2 out_0 out_1 out_2 out_3 out_4 out_5 out_6 out_7 vdd gnd
*.PININFO in_0:I in_1:I in_2:I out_0:O out_1:O out_2:O out_3:O out_4:O out_5:O out_6:O out_7:O vdd:B gnd:B
* INPUT : in_0 
* INPUT : in_1 
* INPUT : in_2 
* OUTPUT: out_0 
* OUTPUT: out_1 
* OUTPUT: out_2 
* OUTPUT: out_3 
* OUTPUT: out_4 
* OUTPUT: out_5 
* OUTPUT: out_6 
* OUTPUT: out_7 
* POWER : vdd 
* GROUND: gnd 
Xpre_inv_0 in_0 inbar_0 vdd gnd pinv
Xpre_inv_1 in_1 inbar_1 vdd gnd pinv
Xpre_inv_2 in_2 inbar_2 vdd gnd pinv
XXpre3x8_and_0 inbar_0 inbar_1 inbar_2 out_0 vdd gnd and3_dec
XXpre3x8_and_1 in_0 inbar_1 inbar_2 out_1 vdd gnd and3_dec
XXpre3x8_and_2 inbar_0 in_1 inbar_2 out_2 vdd gnd and3_dec
XXpre3x8_and_3 in_0 in_1 inbar_2 out_3 vdd gnd and3_dec
XXpre3x8_and_4 inbar_0 inbar_1 in_2 out_4 vdd gnd and3_dec
XXpre3x8_and_5 in_0 inbar_1 in_2 out_5 vdd gnd and3_dec
XXpre3x8_and_6 inbar_0 in_1 in_2 out_6 vdd gnd and3_dec
XXpre3x8_and_7 in_0 in_1 in_2 out_7 vdd gnd and3_dec
.ENDS hierarchical_predecode3x8

.SUBCKT pnand4 A B C D Z vdd gnd
*.PININFO A:I B:I C:I D:I Z:O vdd:B gnd:B
* INPUT : A 
* INPUT : B 
* INPUT : C 
* INPUT : D 
* OUTPUT: Z 
* POWER : vdd 
* GROUND: gnd 
Mpnand4_pmos1 vdd A Z vdd sky130_fd_pr__nfet_01v8 m=1 w=0.84u l=0.15u pd=1.98u ps=1.98u as=0.32p ad=0.32p
Mpnand4_pmos2 Z B vdd vdd sky130_fd_pr__nfet_01v8 m=1 w=0.84u l=0.15u pd=1.98u ps=1.98u as=0.32p ad=0.32p
Mpnand4_pmos3 Z C vdd vdd sky130_fd_pr__nfet_01v8 m=1 w=0.84u l=0.15u pd=1.98u ps=1.98u as=0.32p ad=0.32p
Mpnand4_pmos4 Z D vdd vdd sky130_fd_pr__nfet_01v8 m=1 w=0.84u l=0.15u pd=1.98u ps=1.98u as=0.32p ad=0.32p
Mpnand4_nmos1 Z D net1 gnd sky130_fd_pr__nfet_01v8 m=1 w=0.84u l=0.15u pd=1.98u ps=1.98u as=0.32p ad=0.32p
Mpnand4_nmos2 net1 C net2 gnd sky130_fd_pr__nfet_01v8 m=1 w=0.84u l=0.15u pd=1.98u ps=1.98u as=0.32p ad=0.32p
Mpnand4_nmos3 net2 B net3 gnd sky130_fd_pr__nfet_01v8 m=1 w=0.84u l=0.15u pd=1.98u ps=1.98u as=0.32p ad=0.32p
Mpnand4_nmos4 net3 A gnd gnd sky130_fd_pr__nfet_01v8 m=1 w=0.84u l=0.15u pd=1.98u ps=1.98u as=0.32p ad=0.32p
.ENDS pnand4

.SUBCKT and4_dec A B C D Z vdd gnd
*.PININFO A:I B:I C:I D:I Z:O vdd:B gnd:B
* INPUT : A 
* INPUT : B 
* INPUT : C 
* INPUT : D 
* OUTPUT: Z 
* POWER : vdd 
* GROUND: gnd 
* size: 1
Xpand4_dec_nand A B C D zb_int vdd gnd pnand4
Xpand4_dec_inv zb_int Z vdd gnd pinv
.ENDS and4_dec

.SUBCKT hierarchical_predecode4x16 in_0 in_1 in_2 in_3 out_0 out_1 out_2 out_3 out_4 out_5 out_6 out_7 out_8 out_9 out_10 out_11 out_12 out_13 out_14 out_15 vdd gnd
*.PININFO in_0:I in_1:I in_2:I in_3:I out_0:O out_1:O out_2:O out_3:O out_4:O out_5:O out_6:O out_7:O out_8:O out_9:O out_10:O out_11:O out_12:O out_13:O out_14:O out_15:O vdd:B gnd:B
* INPUT : in_0 
* INPUT : in_1 
* INPUT : in_2 
* INPUT : in_3 
* OUTPUT: out_0 
* OUTPUT: out_1 
* OUTPUT: out_2 
* OUTPUT: out_3 
* OUTPUT: out_4 
* OUTPUT: out_5 
* OUTPUT: out_6 
* OUTPUT: out_7 
* OUTPUT: out_8 
* OUTPUT: out_9 
* OUTPUT: out_10 
* OUTPUT: out_11 
* OUTPUT: out_12 
* OUTPUT: out_13 
* OUTPUT: out_14 
* OUTPUT: out_15 
* POWER : vdd 
* GROUND: gnd 
Xpre_inv_0 in_0 inbar_0 vdd gnd pinv
Xpre_inv_1 in_1 inbar_1 vdd gnd pinv
Xpre_inv_2 in_2 inbar_2 vdd gnd pinv
Xpre_inv_3 in_3 inbar_3 vdd gnd pinv
XXpre4x16_and_0 inbar_0 inbar_1 inbar_2 inbar_3 out_0 vdd gnd and4_dec
XXpre4x16_and_1 in_0 inbar_1 inbar_2 inbar_3 out_1 vdd gnd and4_dec
XXpre4x16_and_2 inbar_0 in_1 inbar_2 inbar_3 out_2 vdd gnd and4_dec
XXpre4x16_and_3 in_0 in_1 inbar_2 inbar_3 out_3 vdd gnd and4_dec
XXpre4x16_and_4 inbar_0 inbar_1 in_2 inbar_3 out_4 vdd gnd and4_dec
XXpre4x16_and_5 in_0 inbar_1 in_2 inbar_3 out_5 vdd gnd and4_dec
XXpre4x16_and_6 inbar_0 in_1 in_2 inbar_3 out_6 vdd gnd and4_dec
XXpre4x16_and_7 in_0 in_1 in_2 inbar_3 out_7 vdd gnd and4_dec
XXpre4x16_and_8 inbar_0 inbar_1 inbar_2 in_3 out_8 vdd gnd and4_dec
XXpre4x16_and_9 in_0 inbar_1 inbar_2 in_3 out_9 vdd gnd and4_dec
XXpre4x16_and_10 inbar_0 in_1 inbar_2 in_3 out_10 vdd gnd and4_dec
XXpre4x16_and_11 in_0 in_1 inbar_2 in_3 out_11 vdd gnd and4_dec
XXpre4x16_and_12 inbar_0 inbar_1 in_2 in_3 out_12 vdd gnd and4_dec
XXpre4x16_and_13 in_0 inbar_1 in_2 in_3 out_13 vdd gnd and4_dec
XXpre4x16_and_14 inbar_0 in_1 in_2 in_3 out_14 vdd gnd and4_dec
XXpre4x16_and_15 in_0 in_1 in_2 in_3 out_15 vdd gnd and4_dec
.ENDS hierarchical_predecode4x16

.SUBCKT hierarchical_decoder addr_0 addr_1 addr_2 addr_3 decode_0 decode_1 decode_2 decode_3 decode_4 decode_5 decode_6 decode_7 decode_8 decode_9 decode_10 decode_11 decode_12 decode_13 decode_14 decode_15 vdd gnd
*.PININFO addr_0:I addr_1:I addr_2:I addr_3:I decode_0:O decode_1:O decode_2:O decode_3:O decode_4:O decode_5:O decode_6:O decode_7:O decode_8:O decode_9:O decode_10:O decode_11:O decode_12:O decode_13:O decode_14:O decode_15:O vdd:B gnd:B
* INPUT : addr_0 
* INPUT : addr_1 
* INPUT : addr_2 
* INPUT : addr_3 
* OUTPUT: decode_0 
* OUTPUT: decode_1 
* OUTPUT: decode_2 
* OUTPUT: decode_3 
* OUTPUT: decode_4 
* OUTPUT: decode_5 
* OUTPUT: decode_6 
* OUTPUT: decode_7 
* OUTPUT: decode_8 
* OUTPUT: decode_9 
* OUTPUT: decode_10 
* OUTPUT: decode_11 
* OUTPUT: decode_12 
* OUTPUT: decode_13 
* OUTPUT: decode_14 
* OUTPUT: decode_15 
* POWER : vdd 
* GROUND: gnd 
Xpre_0 addr_0 addr_1 out_0 out_1 out_2 out_3 vdd gnd hierarchical_predecode2x4
Xpre_1 addr_2 addr_3 out_4 out_5 out_6 out_7 vdd gnd hierarchical_predecode2x4
XDEC_AND_0 out_0 out_4 decode_0 vdd gnd and2_dec
XDEC_AND_4 out_0 out_5 decode_4 vdd gnd and2_dec
XDEC_AND_8 out_0 out_6 decode_8 vdd gnd and2_dec
XDEC_AND_12 out_0 out_7 decode_12 vdd gnd and2_dec
XDEC_AND_1 out_1 out_4 decode_1 vdd gnd and2_dec
XDEC_AND_5 out_1 out_5 decode_5 vdd gnd and2_dec
XDEC_AND_9 out_1 out_6 decode_9 vdd gnd and2_dec
XDEC_AND_13 out_1 out_7 decode_13 vdd gnd and2_dec
XDEC_AND_2 out_2 out_4 decode_2 vdd gnd and2_dec
XDEC_AND_6 out_2 out_5 decode_6 vdd gnd and2_dec
XDEC_AND_10 out_2 out_6 decode_10 vdd gnd and2_dec
XDEC_AND_14 out_2 out_7 decode_14 vdd gnd and2_dec
XDEC_AND_3 out_3 out_4 decode_3 vdd gnd and2_dec
XDEC_AND_7 out_3 out_5 decode_7 vdd gnd and2_dec
XDEC_AND_11 out_3 out_6 decode_11 vdd gnd and2_dec
XDEC_AND_15 out_3 out_7 decode_15 vdd gnd and2_dec
.ENDS hierarchical_decoder

.SUBCKT wordline_driver A B Z vdd gnd
*.PININFO A:I B:I Z:O vdd:B gnd:B
* INPUT : A 
* INPUT : B 
* OUTPUT: Z 
* POWER : vdd 
* GROUND: gnd 
Xwld_nand A B zb_int vdd gnd pnand2
Xwl_driver zb_int Z vdd gnd pinv
.ENDS wordline_driver

.SUBCKT wordline_driver_array in_0 in_1 in_2 in_3 in_4 in_5 in_6 in_7 in_8 in_9 in_10 in_11 in_12 in_13 in_14 in_15 wl_0 wl_1 wl_2 wl_3 wl_4 wl_5 wl_6 wl_7 wl_8 wl_9 wl_10 wl_11 wl_12 wl_13 wl_14 wl_15 en vdd gnd
*.PININFO in_0:I in_1:I in_2:I in_3:I in_4:I in_5:I in_6:I in_7:I in_8:I in_9:I in_10:I in_11:I in_12:I in_13:I in_14:I in_15:I wl_0:O wl_1:O wl_2:O wl_3:O wl_4:O wl_5:O wl_6:O wl_7:O wl_8:O wl_9:O wl_10:O wl_11:O wl_12:O wl_13:O wl_14:O wl_15:O en:I vdd:B gnd:B
* INPUT : in_0 
* INPUT : in_1 
* INPUT : in_2 
* INPUT : in_3 
* INPUT : in_4 
* INPUT : in_5 
* INPUT : in_6 
* INPUT : in_7 
* INPUT : in_8 
* INPUT : in_9 
* INPUT : in_10 
* INPUT : in_11 
* INPUT : in_12 
* INPUT : in_13 
* INPUT : in_14 
* INPUT : in_15 
* OUTPUT: wl_0 
* OUTPUT: wl_1 
* OUTPUT: wl_2 
* OUTPUT: wl_3 
* OUTPUT: wl_4 
* OUTPUT: wl_5 
* OUTPUT: wl_6 
* OUTPUT: wl_7 
* OUTPUT: wl_8 
* OUTPUT: wl_9 
* OUTPUT: wl_10 
* OUTPUT: wl_11 
* OUTPUT: wl_12 
* OUTPUT: wl_13 
* OUTPUT: wl_14 
* OUTPUT: wl_15 
* INPUT : en 
* POWER : vdd 
* GROUND: gnd 
* rows: 16 cols: 2
Xwl_driver_and0 in_0 en wl_0 vdd gnd wordline_driver
Xwl_driver_and1 in_1 en wl_1 vdd gnd wordline_driver
Xwl_driver_and2 in_2 en wl_2 vdd gnd wordline_driver
Xwl_driver_and3 in_3 en wl_3 vdd gnd wordline_driver
Xwl_driver_and4 in_4 en wl_4 vdd gnd wordline_driver
Xwl_driver_and5 in_5 en wl_5 vdd gnd wordline_driver
Xwl_driver_and6 in_6 en wl_6 vdd gnd wordline_driver
Xwl_driver_and7 in_7 en wl_7 vdd gnd wordline_driver
Xwl_driver_and8 in_8 en wl_8 vdd gnd wordline_driver
Xwl_driver_and9 in_9 en wl_9 vdd gnd wordline_driver
Xwl_driver_and10 in_10 en wl_10 vdd gnd wordline_driver
Xwl_driver_and11 in_11 en wl_11 vdd gnd wordline_driver
Xwl_driver_and12 in_12 en wl_12 vdd gnd wordline_driver
Xwl_driver_and13 in_13 en wl_13 vdd gnd wordline_driver
Xwl_driver_and14 in_14 en wl_14 vdd gnd wordline_driver
Xwl_driver_and15 in_15 en wl_15 vdd gnd wordline_driver
.ENDS wordline_driver_array

.SUBCKT and2_dec_0 A B Z vdd gnd
*.PININFO A:I B:I Z:O vdd:B gnd:B
* INPUT : A 
* INPUT : B 
* OUTPUT: Z 
* POWER : vdd 
* GROUND: gnd 
* size: 1
Xpand2_dec_nand A B zb_int vdd gnd pnand2
Xpand2_dec_inv zb_int Z vdd gnd pinv
.ENDS and2_dec_0

.SUBCKT port_address addr_0 addr_1 addr_2 addr_3 wl_en wl_0 wl_1 wl_2 wl_3 wl_4 wl_5 wl_6 wl_7 wl_8 wl_9 wl_10 wl_11 wl_12 wl_13 wl_14 wl_15 rbl_wl vdd gnd
*.PININFO addr_0:I addr_1:I addr_2:I addr_3:I wl_en:I wl_0:O wl_1:O wl_2:O wl_3:O wl_4:O wl_5:O wl_6:O wl_7:O wl_8:O wl_9:O wl_10:O wl_11:O wl_12:O wl_13:O wl_14:O wl_15:O rbl_wl:O vdd:B gnd:B
* INPUT : addr_0 
* INPUT : addr_1 
* INPUT : addr_2 
* INPUT : addr_3 
* INPUT : wl_en 
* OUTPUT: wl_0 
* OUTPUT: wl_1 
* OUTPUT: wl_2 
* OUTPUT: wl_3 
* OUTPUT: wl_4 
* OUTPUT: wl_5 
* OUTPUT: wl_6 
* OUTPUT: wl_7 
* OUTPUT: wl_8 
* OUTPUT: wl_9 
* OUTPUT: wl_10 
* OUTPUT: wl_11 
* OUTPUT: wl_12 
* OUTPUT: wl_13 
* OUTPUT: wl_14 
* OUTPUT: wl_15 
* OUTPUT: rbl_wl 
* POWER : vdd 
* GROUND: gnd 
Xrow_decoder addr_0 addr_1 addr_2 addr_3 dec_out_0 dec_out_1 dec_out_2 dec_out_3 dec_out_4 dec_out_5 dec_out_6 dec_out_7 dec_out_8 dec_out_9 dec_out_10 dec_out_11 dec_out_12 dec_out_13 dec_out_14 dec_out_15 vdd gnd hierarchical_decoder
Xwordline_driver dec_out_0 dec_out_1 dec_out_2 dec_out_3 dec_out_4 dec_out_5 dec_out_6 dec_out_7 dec_out_8 dec_out_9 dec_out_10 dec_out_11 dec_out_12 dec_out_13 dec_out_14 dec_out_15 wl_0 wl_1 wl_2 wl_3 wl_4 wl_5 wl_6 wl_7 wl_8 wl_9 wl_10 wl_11 wl_12 wl_13 wl_14 wl_15 wl_en vdd gnd wordline_driver_array
Xrbl_driver wl_en vdd rbl_wl vdd gnd and2_dec_0
.ENDS port_address

*********************** "cell_1rw" ******************************
.SUBCKT cell_1rw bl br wl vdd gnd
* SPICE3 file created from cell_1rw.ext - technology: sky130A

* Inverter 1
X0 Q Q_bar vdd vdd sky130_fd_pr__pfet_01v8 w=0.42u l=0.15u
X2 Q Q_bar gnd gnd sky130_fd_pr__nfet_01v8 w=0.42u l=0.15u

* Inverter 2
X1 vdd Q Q_bar vdd sky130_fd_pr__pfet_01v8 w=0.42u l=0.15u
X3 gnd Q Q_bar gnd sky130_fd_pr__nfet_01v8 w=0.42u l=0.15u

* Access transistors
X4 Q wl bl gnd sky130_fd_pr__nfet_01v8 w=0.42u l=0.15u
X5 Q_bar wl br gnd sky130_fd_pr__nfet_01v8 w=0.42u l=0.15u

.ENDS

.SUBCKT bitcell_array bl_0_0 br_0_0 bl_0_1 br_0_1 wl_0_0 wl_0_1 wl_0_2 wl_0_3 wl_0_4 wl_0_5 wl_0_6 wl_0_7 wl_0_8 wl_0_9 wl_0_10 wl_0_11 wl_0_12 wl_0_13 wl_0_14 wl_0_15 vdd gnd
*.PININFO bl_0_0:B br_0_0:B bl_0_1:B br_0_1:B wl_0_0:I wl_0_1:I wl_0_2:I wl_0_3:I wl_0_4:I wl_0_5:I wl_0_6:I wl_0_7:I wl_0_8:I wl_0_9:I wl_0_10:I wl_0_11:I wl_0_12:I wl_0_13:I wl_0_14:I wl_0_15:I vdd:B gnd:B
* INOUT : bl_0_0 
* INOUT : br_0_0 
* INOUT : bl_0_1 
* INOUT : br_0_1 
* INPUT : wl_0_0 
* INPUT : wl_0_1 
* INPUT : wl_0_2 
* INPUT : wl_0_3 
* INPUT : wl_0_4 
* INPUT : wl_0_5 
* INPUT : wl_0_6 
* INPUT : wl_0_7 
* INPUT : wl_0_8 
* INPUT : wl_0_9 
* INPUT : wl_0_10 
* INPUT : wl_0_11 
* INPUT : wl_0_12 
* INPUT : wl_0_13 
* INPUT : wl_0_14 
* INPUT : wl_0_15 
* POWER : vdd 
* GROUND: gnd 
* rows: 16 cols: 2
Xbit_r0_c0 bl_0_0 br_0_0 wl_0_0 vdd gnd cell_1rw
Xbit_r1_c0 bl_0_0 br_0_0 wl_0_1 vdd gnd cell_1rw
Xbit_r2_c0 bl_0_0 br_0_0 wl_0_2 vdd gnd cell_1rw
Xbit_r3_c0 bl_0_0 br_0_0 wl_0_3 vdd gnd cell_1rw
Xbit_r4_c0 bl_0_0 br_0_0 wl_0_4 vdd gnd cell_1rw
Xbit_r5_c0 bl_0_0 br_0_0 wl_0_5 vdd gnd cell_1rw
Xbit_r6_c0 bl_0_0 br_0_0 wl_0_6 vdd gnd cell_1rw
Xbit_r7_c0 bl_0_0 br_0_0 wl_0_7 vdd gnd cell_1rw
Xbit_r8_c0 bl_0_0 br_0_0 wl_0_8 vdd gnd cell_1rw
Xbit_r9_c0 bl_0_0 br_0_0 wl_0_9 vdd gnd cell_1rw
Xbit_r10_c0 bl_0_0 br_0_0 wl_0_10 vdd gnd cell_1rw
Xbit_r11_c0 bl_0_0 br_0_0 wl_0_11 vdd gnd cell_1rw
Xbit_r12_c0 bl_0_0 br_0_0 wl_0_12 vdd gnd cell_1rw
Xbit_r13_c0 bl_0_0 br_0_0 wl_0_13 vdd gnd cell_1rw
Xbit_r14_c0 bl_0_0 br_0_0 wl_0_14 vdd gnd cell_1rw
Xbit_r15_c0 bl_0_0 br_0_0 wl_0_15 vdd gnd cell_1rw
Xbit_r0_c1 bl_0_1 br_0_1 wl_0_0 vdd gnd cell_1rw
Xbit_r1_c1 bl_0_1 br_0_1 wl_0_1 vdd gnd cell_1rw
Xbit_r2_c1 bl_0_1 br_0_1 wl_0_2 vdd gnd cell_1rw
Xbit_r3_c1 bl_0_1 br_0_1 wl_0_3 vdd gnd cell_1rw
Xbit_r4_c1 bl_0_1 br_0_1 wl_0_4 vdd gnd cell_1rw
Xbit_r5_c1 bl_0_1 br_0_1 wl_0_5 vdd gnd cell_1rw
Xbit_r6_c1 bl_0_1 br_0_1 wl_0_6 vdd gnd cell_1rw
Xbit_r7_c1 bl_0_1 br_0_1 wl_0_7 vdd gnd cell_1rw
Xbit_r8_c1 bl_0_1 br_0_1 wl_0_8 vdd gnd cell_1rw
Xbit_r9_c1 bl_0_1 br_0_1 wl_0_9 vdd gnd cell_1rw
Xbit_r10_c1 bl_0_1 br_0_1 wl_0_10 vdd gnd cell_1rw
Xbit_r11_c1 bl_0_1 br_0_1 wl_0_11 vdd gnd cell_1rw
Xbit_r12_c1 bl_0_1 br_0_1 wl_0_12 vdd gnd cell_1rw
Xbit_r13_c1 bl_0_1 br_0_1 wl_0_13 vdd gnd cell_1rw
Xbit_r14_c1 bl_0_1 br_0_1 wl_0_14 vdd gnd cell_1rw
Xbit_r15_c1 bl_0_1 br_0_1 wl_0_15 vdd gnd cell_1rw
.ENDS bitcell_array

*********************** "cell_1rw" ******************************
.SUBCKT replica_cell_1rw bl br wl vdd gnd
* SPICE3 file created from cell_1rw.ext - technology: sky130A

X0 vdd wl br gnd sky130_fd_pr__nfet_01v8 w=0.42u l=0.15u
X1 vdd q vdd vdd sky130_fd_pr__pfet_01v8 w=0.42u l=0.15u
X2 q vdd vdd vdd sky130_fd_pr__pfet_01v8 w=0.42u l=0.15u
X3 q vdd gnd gnd sky130_fd_pr__nfet_01v8 w=0.42u l=0.15u
X4 vdd q gnd gnd sky130_fd_pr__nfet_01v8 w=0.42u l=0.15u
X5 q wl bl gnd sky130_fd_pr__nfet_01v8 w=0.42u l=0.15u

.ENDS

*********************** "dummy_cell_1rw" ******************************
.SUBCKT dummy_cell_1rw bl br wl vdd gnd

X0 qbar wl blbar_noconn gnd sky130_fd_pr__nfet_01v8 w=0.42u l=0.15u
X1 qbar q vdd vdd sky130_fd_pr__pfet_01v8 w=0.42u l=0.15u
X2 q qbar vdd vdd sky130_fd_pr__pfet_01v8 w=0.42u l=0.15u
X3 q qbar gnd gnd sky130_fd_pr__nfet_01v8 w=0.42u l=0.15u
X4 qbar q gnd gnd sky130_fd_pr__nfet_01v8 w=0.42u l=0.15u
X5 q wl bl_noconn gnd sky130_fd_pr__nfet_01v8 w=0.42u l=0.15u

.ENDS

.SUBCKT replica_column bl_0_0 br_0_0 wl_0_0 wl_0_1 wl_0_2 wl_0_3 wl_0_4 wl_0_5 wl_0_6 wl_0_7 wl_0_8 wl_0_9 wl_0_10 wl_0_11 wl_0_12 wl_0_13 wl_0_14 wl_0_15 wl_0_16 wl_0_17 wl_0_18 vdd gnd
*.PININFO bl_0_0:O br_0_0:O wl_0_0:I wl_0_1:I wl_0_2:I wl_0_3:I wl_0_4:I wl_0_5:I wl_0_6:I wl_0_7:I wl_0_8:I wl_0_9:I wl_0_10:I wl_0_11:I wl_0_12:I wl_0_13:I wl_0_14:I wl_0_15:I wl_0_16:I wl_0_17:I wl_0_18:I vdd:B gnd:B
* OUTPUT: bl_0_0 
* OUTPUT: br_0_0 
* INPUT : wl_0_0 
* INPUT : wl_0_1 
* INPUT : wl_0_2 
* INPUT : wl_0_3 
* INPUT : wl_0_4 
* INPUT : wl_0_5 
* INPUT : wl_0_6 
* INPUT : wl_0_7 
* INPUT : wl_0_8 
* INPUT : wl_0_9 
* INPUT : wl_0_10 
* INPUT : wl_0_11 
* INPUT : wl_0_12 
* INPUT : wl_0_13 
* INPUT : wl_0_14 
* INPUT : wl_0_15 
* INPUT : wl_0_16 
* INPUT : wl_0_17 
* INPUT : wl_0_18 
* POWER : vdd 
* GROUND: gnd 
Xrbc_0 bl_0_0 br_0_0 wl_0_0 vdd gnd dummy_cell_1rw
Xrbc_1 bl_0_0 br_0_0 wl_0_1 vdd gnd replica_cell_1rw
Xrbc_2 bl_0_0 br_0_0 wl_0_2 vdd gnd replica_cell_1rw
Xrbc_3 bl_0_0 br_0_0 wl_0_3 vdd gnd replica_cell_1rw
Xrbc_4 bl_0_0 br_0_0 wl_0_4 vdd gnd replica_cell_1rw
Xrbc_5 bl_0_0 br_0_0 wl_0_5 vdd gnd replica_cell_1rw
Xrbc_6 bl_0_0 br_0_0 wl_0_6 vdd gnd replica_cell_1rw
Xrbc_7 bl_0_0 br_0_0 wl_0_7 vdd gnd replica_cell_1rw
Xrbc_8 bl_0_0 br_0_0 wl_0_8 vdd gnd replica_cell_1rw
Xrbc_9 bl_0_0 br_0_0 wl_0_9 vdd gnd replica_cell_1rw
Xrbc_10 bl_0_0 br_0_0 wl_0_10 vdd gnd replica_cell_1rw
Xrbc_11 bl_0_0 br_0_0 wl_0_11 vdd gnd replica_cell_1rw
Xrbc_12 bl_0_0 br_0_0 wl_0_12 vdd gnd replica_cell_1rw
Xrbc_13 bl_0_0 br_0_0 wl_0_13 vdd gnd replica_cell_1rw
Xrbc_14 bl_0_0 br_0_0 wl_0_14 vdd gnd replica_cell_1rw
Xrbc_15 bl_0_0 br_0_0 wl_0_15 vdd gnd replica_cell_1rw
Xrbc_16 bl_0_0 br_0_0 wl_0_16 vdd gnd replica_cell_1rw
Xrbc_17 bl_0_0 br_0_0 wl_0_17 vdd gnd replica_cell_1rw
Xrbc_18 bl_0_0 br_0_0 wl_0_18 vdd gnd dummy_cell_1rw
.ENDS replica_column

.SUBCKT dummy_array bl_0_0 br_0_0 bl_0_1 br_0_1 wl_0_0 vdd gnd
*.PININFO bl_0_0:B br_0_0:B bl_0_1:B br_0_1:B wl_0_0:I vdd:B gnd:B
* INOUT : bl_0_0 
* INOUT : br_0_0 
* INOUT : bl_0_1 
* INOUT : br_0_1 
* INPUT : wl_0_0 
* POWER : vdd 
* GROUND: gnd 
Xbit_r0_c0 bl_0_0 br_0_0 wl_0_0 vdd gnd dummy_cell_1rw
Xbit_r0_c1 bl_0_1 br_0_1 wl_0_0 vdd gnd dummy_cell_1rw
.ENDS dummy_array

.SUBCKT dummy_array_0 bl_0_0 br_0_0 bl_0_1 br_0_1 wl_0_0 vdd gnd
*.PININFO bl_0_0:B br_0_0:B bl_0_1:B br_0_1:B wl_0_0:I vdd:B gnd:B
* INOUT : bl_0_0 
* INOUT : br_0_0 
* INOUT : bl_0_1 
* INOUT : br_0_1 
* INPUT : wl_0_0 
* POWER : vdd 
* GROUND: gnd 
Xbit_r0_c0 bl_0_0 br_0_0 wl_0_0 vdd gnd dummy_cell_1rw
Xbit_r0_c1 bl_0_1 br_0_1 wl_0_0 vdd gnd dummy_cell_1rw
.ENDS dummy_array_0

.SUBCKT dummy_array_1 bl_0_0 br_0_0 bl_0_1 br_0_1 wl_0_0 vdd gnd
*.PININFO bl_0_0:B br_0_0:B bl_0_1:B br_0_1:B wl_0_0:I vdd:B gnd:B
* INOUT : bl_0_0 
* INOUT : br_0_0 
* INOUT : bl_0_1 
* INOUT : br_0_1 
* INPUT : wl_0_0 
* POWER : vdd 
* GROUND: gnd 
Xbit_r0_c0 bl_0_0 br_0_0 wl_0_0 vdd gnd dummy_cell_1rw
Xbit_r0_c1 bl_0_1 br_0_1 wl_0_0 vdd gnd dummy_cell_1rw
.ENDS dummy_array_1

.SUBCKT dummy_array_2 bl_0_0 br_0_0 wl_0_0 wl_0_1 wl_0_2 wl_0_3 wl_0_4 wl_0_5 wl_0_6 wl_0_7 wl_0_8 wl_0_9 wl_0_10 wl_0_11 wl_0_12 wl_0_13 wl_0_14 wl_0_15 wl_0_16 wl_0_17 wl_0_18 vdd gnd
*.PININFO bl_0_0:B br_0_0:B wl_0_0:I wl_0_1:I wl_0_2:I wl_0_3:I wl_0_4:I wl_0_5:I wl_0_6:I wl_0_7:I wl_0_8:I wl_0_9:I wl_0_10:I wl_0_11:I wl_0_12:I wl_0_13:I wl_0_14:I wl_0_15:I wl_0_16:I wl_0_17:I wl_0_18:I vdd:B gnd:B
* INOUT : bl_0_0 
* INOUT : br_0_0 
* INPUT : wl_0_0 
* INPUT : wl_0_1 
* INPUT : wl_0_2 
* INPUT : wl_0_3 
* INPUT : wl_0_4 
* INPUT : wl_0_5 
* INPUT : wl_0_6 
* INPUT : wl_0_7 
* INPUT : wl_0_8 
* INPUT : wl_0_9 
* INPUT : wl_0_10 
* INPUT : wl_0_11 
* INPUT : wl_0_12 
* INPUT : wl_0_13 
* INPUT : wl_0_14 
* INPUT : wl_0_15 
* INPUT : wl_0_16 
* INPUT : wl_0_17 
* INPUT : wl_0_18 
* POWER : vdd 
* GROUND: gnd 
Xbit_r0_c0 bl_0_0 br_0_0 wl_0_0 vdd gnd dummy_cell_1rw
Xbit_r1_c0 bl_0_0 br_0_0 wl_0_1 vdd gnd dummy_cell_1rw
Xbit_r2_c0 bl_0_0 br_0_0 wl_0_2 vdd gnd dummy_cell_1rw
Xbit_r3_c0 bl_0_0 br_0_0 wl_0_3 vdd gnd dummy_cell_1rw
Xbit_r4_c0 bl_0_0 br_0_0 wl_0_4 vdd gnd dummy_cell_1rw
Xbit_r5_c0 bl_0_0 br_0_0 wl_0_5 vdd gnd dummy_cell_1rw
Xbit_r6_c0 bl_0_0 br_0_0 wl_0_6 vdd gnd dummy_cell_1rw
Xbit_r7_c0 bl_0_0 br_0_0 wl_0_7 vdd gnd dummy_cell_1rw
Xbit_r8_c0 bl_0_0 br_0_0 wl_0_8 vdd gnd dummy_cell_1rw
Xbit_r9_c0 bl_0_0 br_0_0 wl_0_9 vdd gnd dummy_cell_1rw
Xbit_r10_c0 bl_0_0 br_0_0 wl_0_10 vdd gnd dummy_cell_1rw
Xbit_r11_c0 bl_0_0 br_0_0 wl_0_11 vdd gnd dummy_cell_1rw
Xbit_r12_c0 bl_0_0 br_0_0 wl_0_12 vdd gnd dummy_cell_1rw
Xbit_r13_c0 bl_0_0 br_0_0 wl_0_13 vdd gnd dummy_cell_1rw
Xbit_r14_c0 bl_0_0 br_0_0 wl_0_14 vdd gnd dummy_cell_1rw
Xbit_r15_c0 bl_0_0 br_0_0 wl_0_15 vdd gnd dummy_cell_1rw
Xbit_r16_c0 bl_0_0 br_0_0 wl_0_16 vdd gnd dummy_cell_1rw
Xbit_r17_c0 bl_0_0 br_0_0 wl_0_17 vdd gnd dummy_cell_1rw
Xbit_r18_c0 bl_0_0 br_0_0 wl_0_18 vdd gnd dummy_cell_1rw
.ENDS dummy_array_2

.SUBCKT dummy_array_3 bl_0_0 br_0_0 wl_0_0 wl_0_1 wl_0_2 wl_0_3 wl_0_4 wl_0_5 wl_0_6 wl_0_7 wl_0_8 wl_0_9 wl_0_10 wl_0_11 wl_0_12 wl_0_13 wl_0_14 wl_0_15 wl_0_16 wl_0_17 wl_0_18 vdd gnd
*.PININFO bl_0_0:B br_0_0:B wl_0_0:I wl_0_1:I wl_0_2:I wl_0_3:I wl_0_4:I wl_0_5:I wl_0_6:I wl_0_7:I wl_0_8:I wl_0_9:I wl_0_10:I wl_0_11:I wl_0_12:I wl_0_13:I wl_0_14:I wl_0_15:I wl_0_16:I wl_0_17:I wl_0_18:I vdd:B gnd:B
* INOUT : bl_0_0 
* INOUT : br_0_0 
* INPUT : wl_0_0 
* INPUT : wl_0_1 
* INPUT : wl_0_2 
* INPUT : wl_0_3 
* INPUT : wl_0_4 
* INPUT : wl_0_5 
* INPUT : wl_0_6 
* INPUT : wl_0_7 
* INPUT : wl_0_8 
* INPUT : wl_0_9 
* INPUT : wl_0_10 
* INPUT : wl_0_11 
* INPUT : wl_0_12 
* INPUT : wl_0_13 
* INPUT : wl_0_14 
* INPUT : wl_0_15 
* INPUT : wl_0_16 
* INPUT : wl_0_17 
* INPUT : wl_0_18 
* POWER : vdd 
* GROUND: gnd 
Xbit_r0_c0 bl_0_0 br_0_0 wl_0_0 vdd gnd dummy_cell_1rw
Xbit_r1_c0 bl_0_0 br_0_0 wl_0_1 vdd gnd dummy_cell_1rw
Xbit_r2_c0 bl_0_0 br_0_0 wl_0_2 vdd gnd dummy_cell_1rw
Xbit_r3_c0 bl_0_0 br_0_0 wl_0_3 vdd gnd dummy_cell_1rw
Xbit_r4_c0 bl_0_0 br_0_0 wl_0_4 vdd gnd dummy_cell_1rw
Xbit_r5_c0 bl_0_0 br_0_0 wl_0_5 vdd gnd dummy_cell_1rw
Xbit_r6_c0 bl_0_0 br_0_0 wl_0_6 vdd gnd dummy_cell_1rw
Xbit_r7_c0 bl_0_0 br_0_0 wl_0_7 vdd gnd dummy_cell_1rw
Xbit_r8_c0 bl_0_0 br_0_0 wl_0_8 vdd gnd dummy_cell_1rw
Xbit_r9_c0 bl_0_0 br_0_0 wl_0_9 vdd gnd dummy_cell_1rw
Xbit_r10_c0 bl_0_0 br_0_0 wl_0_10 vdd gnd dummy_cell_1rw
Xbit_r11_c0 bl_0_0 br_0_0 wl_0_11 vdd gnd dummy_cell_1rw
Xbit_r12_c0 bl_0_0 br_0_0 wl_0_12 vdd gnd dummy_cell_1rw
Xbit_r13_c0 bl_0_0 br_0_0 wl_0_13 vdd gnd dummy_cell_1rw
Xbit_r14_c0 bl_0_0 br_0_0 wl_0_14 vdd gnd dummy_cell_1rw
Xbit_r15_c0 bl_0_0 br_0_0 wl_0_15 vdd gnd dummy_cell_1rw
Xbit_r16_c0 bl_0_0 br_0_0 wl_0_16 vdd gnd dummy_cell_1rw
Xbit_r17_c0 bl_0_0 br_0_0 wl_0_17 vdd gnd dummy_cell_1rw
Xbit_r18_c0 bl_0_0 br_0_0 wl_0_18 vdd gnd dummy_cell_1rw
.ENDS dummy_array_3

.SUBCKT replica_bitcell_array rbl_bl_0_0 rbl_br_0_0 bl_0_0 br_0_0 bl_0_1 br_0_1 rbl_wl_0_0 wl_0_0 wl_0_1 wl_0_2 wl_0_3 wl_0_4 wl_0_5 wl_0_6 wl_0_7 wl_0_8 wl_0_9 wl_0_10 wl_0_11 wl_0_12 wl_0_13 wl_0_14 wl_0_15 vdd gnd
*.PININFO rbl_bl_0_0:B rbl_br_0_0:B bl_0_0:B br_0_0:B bl_0_1:B br_0_1:B rbl_wl_0_0:I wl_0_0:I wl_0_1:I wl_0_2:I wl_0_3:I wl_0_4:I wl_0_5:I wl_0_6:I wl_0_7:I wl_0_8:I wl_0_9:I wl_0_10:I wl_0_11:I wl_0_12:I wl_0_13:I wl_0_14:I wl_0_15:I vdd:B gnd:B
* INOUT : rbl_bl_0_0 
* INOUT : rbl_br_0_0 
* INOUT : bl_0_0 
* INOUT : br_0_0 
* INOUT : bl_0_1 
* INOUT : br_0_1 
* INPUT : rbl_wl_0_0 
* INPUT : wl_0_0 
* INPUT : wl_0_1 
* INPUT : wl_0_2 
* INPUT : wl_0_3 
* INPUT : wl_0_4 
* INPUT : wl_0_5 
* INPUT : wl_0_6 
* INPUT : wl_0_7 
* INPUT : wl_0_8 
* INPUT : wl_0_9 
* INPUT : wl_0_10 
* INPUT : wl_0_11 
* INPUT : wl_0_12 
* INPUT : wl_0_13 
* INPUT : wl_0_14 
* INPUT : wl_0_15 
* POWER : vdd 
* GROUND: gnd 
* rbl: None left_rbl: None right_rbl: None
Xbitcell_array bl_0_0 br_0_0 bl_0_1 br_0_1 wl_0_0 wl_0_1 wl_0_2 wl_0_3 wl_0_4 wl_0_5 wl_0_6 wl_0_7 wl_0_8 wl_0_9 wl_0_10 wl_0_11 wl_0_12 wl_0_13 wl_0_14 wl_0_15 vdd gnd bitcell_array
Xreplica_col_0 rbl_bl_0_0 rbl_br_0_0 gnd rbl_wl_0_0 wl_0_0 wl_0_1 wl_0_2 wl_0_3 wl_0_4 wl_0_5 wl_0_6 wl_0_7 wl_0_8 wl_0_9 wl_0_10 wl_0_11 wl_0_12 wl_0_13 wl_0_14 wl_0_15 gnd vdd gnd replica_column
Xdummy_row_0 bl_0_0 br_0_0 bl_0_1 br_0_1 rbl_wl_0_0 vdd gnd dummy_array
Xdummy_row_bot bl_0_0 br_0_0 bl_0_1 br_0_1 gnd vdd gnd dummy_array_1
Xdummy_row_top bl_0_0 br_0_0 bl_0_1 br_0_1 gnd vdd gnd dummy_array_0
Xdummy_col_left dummy_left_bl_0_0 dummy_left_br_0_0 gnd rbl_wl_0_0 wl_0_0 wl_0_1 wl_0_2 wl_0_3 wl_0_4 wl_0_5 wl_0_6 wl_0_7 wl_0_8 wl_0_9 wl_0_10 wl_0_11 wl_0_12 wl_0_13 wl_0_14 wl_0_15 gnd vdd gnd dummy_array_2
Xdummy_col_right dummy_right_bl_0_0 dummy_right_br_0_0 gnd rbl_wl_0_0 wl_0_0 wl_0_1 wl_0_2 wl_0_3 wl_0_4 wl_0_5 wl_0_6 wl_0_7 wl_0_8 wl_0_9 wl_0_10 wl_0_11 wl_0_12 wl_0_13 wl_0_14 wl_0_15 gnd vdd gnd dummy_array_3
.ENDS replica_bitcell_array

.SUBCKT precharge_0 bl br en_bar vdd
*.PININFO bl:O br:O en_bar:I vdd:B
* OUTPUT: bl 
* OUTPUT: br 
* INPUT : en_bar 
* POWER : vdd 
Mlower_pmos bl en_bar br vdd sky130_fd_pr__nfet_01v8 m=1 w=0.84u l=0.15u pd=1.98u ps=1.98u as=0.32p ad=0.32p
Mupper_pmos1 bl en_bar vdd vdd sky130_fd_pr__nfet_01v8 m=1 w=0.84u l=0.15u pd=1.98u ps=1.98u as=0.32p ad=0.32p
Mupper_pmos2 br en_bar vdd vdd sky130_fd_pr__nfet_01v8 m=1 w=0.84u l=0.15u pd=1.98u ps=1.98u as=0.32p ad=0.32p
.ENDS precharge_0

.SUBCKT precharge_array bl_0 br_0 bl_1 br_1 bl_2 br_2 en_bar vdd
*.PININFO bl_0:O br_0:O bl_1:O br_1:O bl_2:O br_2:O en_bar:I vdd:B
* OUTPUT: bl_0 
* OUTPUT: br_0 
* OUTPUT: bl_1 
* OUTPUT: br_1 
* OUTPUT: bl_2 
* OUTPUT: br_2 
* INPUT : en_bar 
* POWER : vdd 
* cols: 3 size: 1 bl: bl br: br
Xpre_column_0 bl_0 br_0 en_bar vdd precharge_0
Xpre_column_1 bl_1 br_1 en_bar vdd precharge_0
Xpre_column_2 bl_2 br_2 en_bar vdd precharge_0
.ENDS precharge_array